data/mat/ieee30.m
function mpc = ieee30

%ieee30 MATPOWER case generated from D:/codex/elec_power_flow/hybrid_power_system_analysis/data/model/ac/ieee30.e

% Auto-generated by scripts/generate_matpower_cases.py.

% ZIP loads are exported as static P/Q at V=1; zero-impedance ties are bus-collapsed.

mpc.version = '2';

mpc.baseMVA = 100;

mpc.bus = [
	1	3	0	0	0	0	1	1	0	135	1	1.2	0.8;
	2	2	21.7	12.7	0	0	1	1	0	135	1	1.2	0.8;
	3	1	2.4	1.2	0	0	1	1	0	135	1	1.2	0.8;
	4	1	7.6	1.6	0	0	1	1	0	135	1	1.2	0.8;
	5	1	0	0	0	0.19	1	1	0	135	1	1.2	0.8;
	6	1	0	0	0	0	1	1	0	135	1	1.2	0.8;
	7	1	22.8	10.9	0	0	1	1	0	135	1	1.2	0.8;
	8	1	30	30	0	0	1	1	0	135	1	1.2	0.8;
	9	1	0	0	0	0	1	1	0	135	1	1.2	0.8;
	10	1	5.8	2	0	0	1	1	0	135	1	1.2	0.8;
	11	1	0	0	0	0	1	1	0	135	1	1.2	0.8;
	12	1	11.2	7.5	0	0	1	1	0	135	1	1.2	0.8;
	13	2	0	0	0	0	1	1	0	135	1	1.2	0.8;
	14	1	6.200000000000001	1.6	0	0	1	1	0	135	1	1.2	0.8;
	15	1	8.199999999999999	2.5	0	0	1	1	0	135	1	1.2	0.8;
	16	1	3.5	1.8	0	0	1	1	0	135	1	1.2	0.8;
	17	1	9	5.8	0	0	1	1	0	135	1	1.2	0.8;
	18	1	3.2	0.9000000000000001	0	0	1	1	0	135	1	1.2	0.8;
	19	1	9.5	3.4	0	0	1	1	0	135	1	1.2	0.8;
	20	1	2.2	0.7	0	0	1	1	0	135	1	1.2	0.8;
	21	1	17.5	11.2	0	0	1	1	0	135	1	1.2	0.8;
	22	2	0	0	0	0	1	1	0	135	1	1.2	0.8;
	23	2	3.2	1.6	0	0	1	1	0	135	1	1.2	0.8;
	24	1	8.699999999999999	6.7	0	0.04	1	1	0	135	1	1.2	0.8;
	25	1	0	0	0	0	1	1	0	135	1	1.2	0.8;
	26	1	3.5	2.3	0	0	1	1	0	135	1	1.2	0.8;
	27	2	0	0	0	0	1	1	0	135	1	1.2	0.8;
	28	1	0	0	0	0	1	1	0	135	1	1.2	0.8;
	29	1	2.4	0.9000000000000001	0	0	1	1	0	135	1	1.2	0.8;
	30	1	10.6	1.9	0	0	1	1	0	135	1	1.2	0.8;
];

mpc.gen = [
	1	23.54	0	1000000000	-1000000000	1	100	1	1000000000	-1000000000	0	0	0	0	0	0	0	0	0	0	0;
	2	60.97	0	1000000000	-1000000000	1	100	1	1000000000	-1000000000	0	0	0	0	0	0	0	0	0	0	0;
	22	21.59	0	1000000000	-1000000000	1	100	1	1000000000	-1000000000	0	0	0	0	0	0	0	0	0	0	0;
	27	26.91	0	1000000000	-1000000000	1	100	1	1000000000	-1000000000	0	0	0	0	0	0	0	0	0	0	0;
	23	19.2	0	1000000000	-1000000000	1	100	1	1000000000	-1000000000	0	0	0	0	0	0	0	0	0	0	0;
	13	37	0	1000000000	-1000000000	1	100	1	1000000000	-1000000000	0	0	0	0	0	0	0	0	0	0	0;
];

mpc.branch = [
	1	2	0.02	0.06	0.03	0	0	0	0	0	1	-360	360;
	1	3	0.05	0.19	0.02	0	0	0	0	0	1	-360	360;
	2	4	0.06	0.17	0.02	0	0	0	0	0	1	-360	360;
	3	4	0.01	0.04	0	0	0	0	0	0	1	-360	360;
	2	5	0.05	0.2	0.02	0	0	0	0	0	1	-360	360;
	2	6	0.06	0.18	0.02	0	0	0	0	0	1	-360	360;
	4	6	0.01	0.04	0	0	0	0	0	0	1	-360	360;
	5	7	0.05	0.12	0.01	0	0	0	0	0	1	-360	360;
	6	7	0.03	0.08	0.01	0	0	0	0	0	1	-360	360;
	6	8	0.01	0.04	0	0	0	0	0	0	1	-360	360;
	6	9	0	0.21	0	0	0	0	0	0	1	-360	360;
	6	10	0	0.5600000000000001	0	0	0	0	0	0	1	-360	360;
	9	11	0	0.21	0	0	0	0	0	0	1	-360	360;
	9	10	0	0.11	0	0	0	0	0	0	1	-360	360;
	4	12	0	0.26	0	0	0	0	0	0	1	-360	360;
	12	13	0	0.14	0	0	0	0	0	0	1	-360	360;
	12	14	0.12	0.26	0	0	0	0	0	0	1	-360	360;
	12	15	0.07000000000000001	0.13	0	0	0	0	0	0	1	-360	360;
	12	16	0.09	0.2	0	0	0	0	0	0	1	-360	360;
	14	15	0.22	0.2	0	0	0	0	0	0	1	-360	360;
	16	17	0.08	0.19	0	0	0	0	0	0	1	-360	360;
	15	18	0.11	0.22	0	0	0	0	0	0	1	-360	360;
	18	19	0.06	0.13	0	0	0	0	0	0	1	-360	360;
	19	20	0.03	0.07000000000000001	0	0	0	0	0	0	1	-360	360;
	10	20	0.09	0.21	0	0	0	0	0	0	1	-360	360;
	10	17	0.03	0.08	0	0	0	0	0	0	1	-360	360;
	10	21	0.03	0.07000000000000001	0	0	0	0	0	0	1	-360	360;
	10	22	0.07000000000000001	0.15	0	0	0	0	0	0	1	-360	360;
	21	22	0.01	0.02	0	0	0	0	0	0	1	-360	360;
	15	23	0.1	0.2	0	0	0	0	0	0	1	-360	360;
	22	24	0.12	0.18	0	0	0	0	0	0	1	-360	360;
	23	24	0.13	0.27	0	0	0	0	0	0	1	-360	360;
	24	25	0.19	0.33	0	0	0	0	0	0	1	-360	360;
	25	26	0.25	0.38	0	0	0	0	0	0	1	-360	360;
	25	27	0.11	0.21	0	0	0	0	0	0	1	-360	360;
	28	27	0	0.4	0	0	0	0	0	0	1	-360	360;
	27	29	0.22	0.42	0	0	0	0	0	0	1	-360	360;
	27	30	0.32	0.6	0	0	0	0	0	0	1	-360	360;
	29	30	0.24	0.45	0	0	0	0	0	0	1	-360	360;
	8	28	0.06	0.2	0.02	0	0	0	0	0	1	-360	360;
	6	28	0.02	0.06	0.01	0	0	0	0	0	1	-360	360;
];
